# Built with EasyBuild version 4.2.1-reccde426790b53218b85aaac5d5891cb7ee0a908 on 2020-06-29_19-05-41
easyblock = 'MakeCp'
name = 'mf2005'
version = '1.12.0'
homepage = 'https://en.wikipedia.org/wiki/MODFLOW'
description = """   is the U.S. Geological Survey modular finite-difference flow model, which is a computer code that solves the groundwater flow equation. The program is used by hydrogeologists to simulate the flow of groundwater through aquifers. """
toolchain = {'name': 'GCC', 'version': '8.3.0'}
source_urls = ['https://water.usgs.gov/water-resources/software/MODFLOW-2005/']
sources = ['MF2005.1_12u.zip']
checksums = ['323da8129c030fe06920e41c68f99fa7',  #MF2005.1_12u.zip 
]
parallel = 1
prebuildopts = "cd make && "
files_to_copy = [
(['make/mf2005'],'bin'),'doc']
sanity_check_paths = {
  'files': ['bin/mf2005'],
  'dirs': []
}

moduleclass = 'geo'



# Build statistics
buildstats = [{
    "build_time": 185.06,
    "command_line": ['--add-system-to-minimal-toolchains', "--allow-loaded-modules='nixpkgs'", "--buildpath='/tmp/ebuser/avx2'", "--configfiles='/cvmfs/soft.computecanada.ca/easybuild/config.cfg'", "--containerpath='/cvmfs/soft.computecanada.ca/easybuild/containers'", '--enforce-checksums', "--filter-deps='Bison,CMake=:3.12.3[,flex,ncurses,libreadline,bzip2,zlib,binutils,M4,Autoconf,Automake,libtool,Autotools,Szip,libxml2,sparsehash,SQLite,cURL,Doxygen,expat=:2.2.5[,Mesa,libGLU,SWIG=:3.0.12[,PCRE,libjpeg-turbo,LibTIFF,libpng,XZ,ant,gettext,X11,pkg-config,LLVM=:6.0.1[,libdrm,gperf,FLTK,fontconfig,freetype,GMP,GL2PS,gnuplot,GraphicsMagick,MPFR,libmatheval,Tcl,Tk,CFITSIO,libX11,libXft,libXpm,libXext,makedepend,cairo,libiconv,FFmpeg,GLib,FLANN,hwloc,numactl,DBus,texinfo,libsndfile'", "--filter-env-vars='LD_LIBRARY_PATH,LD_PRELOAD'", '--disable-fixed-installdir-naming-scheme', "--hide-deps='icc,ifort,GCCcore'", "--hide-toolchains='GCCcore,iompi,iomkl'", "--hooks='/cvmfs/soft.computecanada.ca/easybuild/cc_hooks.py'", '--ignore-osdeps', "--include-module-naming-schemes='/cvmfs/soft.computecanada.ca/easybuild/easybuild-computecanada-config/SoftCCHierarchicalMNS.py'", "--include-toolchains='/cvmfs/soft.computecanada.ca/easybuild/easybuild-computecanada-config/toolchains/*.py'", "--installpath='/cvmfs/soft.computecanada.ca/easybuild'", '--minimal-toolchains', '--module-depends-on', "--module-naming-scheme='SoftCCHierarchicalMNS'", "--optarch='{\\'GCC\\': \\'march=core-avx2\\', \\'GCCcore\\': \\'GENERIC\\', \\'Intel\\': \\'xCore-AVX2\\', \\'PGI\\': \\'tp=haswell\\'}'", "--packagepath='/cvmfs/soft.computecanada.ca/easybuild/packages'", "--parallel='8'", "--prefix='/cvmfs/soft.computecanada.ca/easybuild'", '--recursive-module-unload', "--repository='GitRepository'", "--repositorypath='/cvmfs/soft.computecanada.ca/easybuild/ebfiles_repo.git,2017'", "--robot-paths='/cvmfs/soft.computecanada.ca/easybuild/easyconfigs:/cvmfs/soft.computecanada.ca/easybuild/ebfiles_repo/2017'", "--sourcepath='/cvmfs/soft.computecanada.ca/easybuild/sources'", "--subdir-modules='modules/2017'", "--subdir-software='software/2017'", "--subdir-user-modules='.local/easybuild/modules/2017'", "--suffix-modules-path=''", "--use-ccache='/cvmfs/local/ccache'", '--use-existing-modules', 'md2005-1.12.0-GCC-8.3.0.eb'],
    "core_count": 16,
    "cpu_arch": "x86_64",
    "cpu_arch_name": "UNKNOWN",
    "cpu_model": "Intel Xeon Processor (Skylake, IBRS)",
    "cpu_speed": 2095.078,
    "cpu_vendor": "Intel",
    "easybuild-easyblocks_version": "4.2.1-rf308263371c29f7ad4031dd06e1801f4eb48b800",
    "easybuild-framework_version": "4.2.1-reccde426790b53218b85aaac5d5891cb7ee0a908",
    "gcc_version": "Using built-in specs.; COLLECT_GCC=/cvmfs/soft.computecanada.ca/nix/var/nix/profiles/gcc-8.3.0/bin/gcc; COLLECT_LTO_WRAPPER=/cvmfs/soft.computecanada.ca/nix/store/d8f5yq3axry49m4j8yd464gmrmz5l924-gfortran-8.3.0/libexec/gcc/x86_64-pc-linux-gnu/8.3.0/lto-wrapper; OFFLOAD_TARGET_NAMES=nvptx-none; Target: x86_64-pc-linux-gnu; Configured with: ; Thread model: posix; gcc version 8.3.0 (20190410 gcc-8-branch revision 270244) ; ",
    "glibc_version": "2.24",
    "hostname": "build-node.computecanada.ca",
    "install_size": 8852347,
    "modules_tool": ('Lmod', '/cvmfs/soft.computecanada.ca/custom/software/lmod/lmod/libexec/lmod', '8.3.8'),
    "os_name": "centos linux",
    "os_type": "Linux",
    "os_version": "7.8.2003",
    "platform_name": "x86_64-unknown-linux",
    "python_version": "2.7.13 (default, Dec 17 2016, 20:05:07) ; [GCC 5.4.0]",
    "system_gcc_path": "/tmp/eb-6SVfew/tmpO_oPwM/gcc",
    "system_python_path": "/cvmfs/soft.computecanada.ca/nix/var/nix/profiles/16.09/bin/python",
    "timestamp": 1593457539,
    "total_memory": 60232,
}]
